
  ACD/Labs04281712062D

  9  8  0  0  0  0  0  0  0  0  2 V2000
    5.3928   -1.4453    0.0000 Cl  0  5  0  0  0  0  0  0  0  0  0  0
    4.0554   -4.0662    0.0000 C   0  0  0  0  0  0  0  0  0  0  0  0
    2.7557   -3.7912    0.0000 C   0  0  0  0  0  0  0  0  0  0  0  0
    2.3405   -2.5239    0.0000 N   0  3  0  0  0  0  0  0  0  0  0  0
    3.1225   -1.4453    0.0000 C   0  0  0  0  0  0  0  0  0  0  0  0
    2.3405   -0.3721    0.0000 C   0  0  0  0  0  0  0  0  0  0  0  0
    1.0786   -0.7820    0.0000 N   0  0  0  0  0  0  0  0  0  0  0  0
    0.0000    0.0000    0.0000 C   0  0  0  0  0  0  0  0  0  0  0  0
    1.0786   -2.1140    0.0000 C   0  0  0  0  0  0  0  0  0  0  0  0
  2  3  1  0  0  0  0
  3  4  1  0  0  0  0
  4  5  1  0  0  0  0
  4  9  2  0  0  0  0
  5  6  2  0  0  0  0
  6  7  1  0  0  0  0
  7  8  1  0  0  0  0
  7  9  1  0  0  0  0
M  CHG  2   1  -1   4   1
M  END
