
  ACD/Labs12131311352D

 13 14  0  0  0  0  0  0  0  0  1 V2000
    3.4535   -2.6730    0.0000 C   0  0  0  0  0  0  0  0  0  0  0  0
    2.3139   -2.0100    0.0000 C   0  0  0  0  0  0  0  0  0  0  0  0
    3.4535   -4.0061    0.0000 N   0  0  0  0  0  0  0  0  0  0  0  0
    4.6139   -1.9961    0.0000 C   0  0  0  0  0  0  0  0  0  0  0  0
    4.5932   -0.6769    0.0000 N   0  0  0  0  0  0  0  0  0  0  0  0
    1.1604   -2.6730    0.0000 C   0  0  0  0  0  0  0  0  0  0  0  0
    2.3139   -4.6692    0.0000 C   0  0  0  0  0  0  0  0  0  0  0  0
    0.0000   -2.0100    0.0000 N   0  0  0  0  0  0  0  0  0  0  0  0
    1.1604   -4.0061    0.0000 C   0  0  0  0  0  0  0  0  0  0  0  0
    5.7329    0.0000    0.0000 C   0  0  0  0  0  0  0  0  0  0  0  0
    5.7674   -2.6592    0.0000 C   0  0  0  0  0  0  0  0  0  0  0  0
    6.9071   -0.6424    0.0000 C   0  0  0  0  0  0  0  0  0  0  0  0
    6.9071   -1.9754    0.0000 C   0  0  0  0  0  0  0  0  0  0  0  0
  1  2  2  0  0  0  0
  1  3  1  0  0  0  0
  1  4  1  0  0  0  0
  2  6  1  0  0  0  0
  3  7  2  0  0  0  0
  4  5  1  0  0  0  0
  4 11  2  0  0  0  0
  5 10  2  0  0  0  0
  6  8  1  0  0  0  0
  6  9  2  0  0  0  0
  7  9  1  0  0  0  0
 10 12  1  0  0  0  0
 11 13  1  0  0  0  0
 12 13  2  0  0  0  0
M  END
